@<TRIPOS>MOLECULE
LIG
 56 59 0 0 0
SMALL
GASTEIGER

@<TRIPOS>ATOM
      1  O        -27.8910   -4.3730   -6.5940 O.2     0  LIG0       -0.2912
      2  C        -28.1650   -3.1800   -6.7160 C.2     0  LIG0        0.1735
      3  C        -27.0480   -2.2060   -6.6960 C.ar    0  LIG0        0.0217
      4  C        -26.0760   -2.3390   -5.6980 C.ar    0  LIG0       -0.0510
      5  C        -25.0000   -1.4560   -5.6590 C.ar    0  LIG0       -0.0576
      6  C        -24.8890   -0.4600   -6.6300 C.ar    0  LIG0       -0.0199
      7  C        -25.8430   -0.3390   -7.6460 C.ar    0  LIG0        0.1208
      8  O        -25.5880    0.6580   -8.5460 O.3     0  LIG0       -0.4951
      9  C        -26.5190    0.8250   -9.6110 C.3     0  LIG0        0.0788
     10  C        -26.9330   -1.2110   -7.6740 C.ar    0  LIG0       -0.0095
     11  C        -29.5860   -2.6490   -6.7850 C.3     0  LIG0        0.0657
     12  S        -30.5850   -3.6250   -7.9480 S.3     0  LIG0       -0.0576
     13  C        -29.9490   -2.9960   -9.4300 C.ar    0  LIG0        0.2778
     14  N        -29.9560   -1.7170   -9.7440 N.ar    0  LIG0       -0.1010
     15  N        -29.2840   -1.5990  -10.9400 N.ar    0  LIG0       -0.1113
     16  C        -28.9060   -2.8170  -11.2700 C.ar    0  LIG0        0.2225
     17  C        -28.0730   -3.2710  -12.4120 C.3     0  LIG0        0.0507
     18  C        -26.7090   -2.6210  -12.3940 C.ar    0  LIG0       -0.0383
     19  C        -26.4630   -1.4620  -13.1410 C.ar    0  LIG0       -0.0564
     20  C        -25.2350   -0.7990  -13.0450 C.ar    0  LIG0       -0.0402
     21  C        -24.2340   -1.2780  -12.2000 C.ar    0  LIG0        0.0348
     22  N        -22.9960   -0.6340  -11.9970 N.am    0  LIG0       -0.2692
     23  C        -22.5260    0.5200  -12.6110 C.2     0  LIG0        0.3081
     24  N        -21.3350    0.9230  -12.0200 N.am    0  LIG0       -0.2691
     25  C        -20.5120    2.0080  -12.3930 C.ar    0  LIG0        0.0375
     26  C        -20.7080    2.7840  -13.5400 C.ar    0  LIG0       -0.0403
     27  C        -19.8430    3.8420  -13.8450 C.ar    0  LIG0       -0.0573
     28  C        -18.7730    4.1330  -13.0030 C.ar    0  LIG0       -0.0263
     29  C        -18.5760    3.3600  -11.8680 C.ar    0  LIG0        0.1252
     30  F        -17.5480    3.6330  -11.0530 F       0  LIG0       -0.2054
     31  C        -19.4290    2.3030  -11.5580 C.ar    0  LIG0       -0.0052
     32  O        -23.0840    1.1030  -13.5310 O.2     0  LIG0       -0.2522
     33  C        -24.4730   -2.4460  -11.4660 C.ar    0  LIG0       -0.0402
     34  C        -25.6990   -3.1120  -11.5590 C.ar    0  LIG0       -0.0564
     35  O        -29.3050   -3.7620  -10.3630 O.2     0  LIG0       -0.4152
     36  H        -26.1560   -3.1290   -4.9540 H       0  LIG0        0.0625
     37  H        -24.2470   -1.5440   -4.8790 H       0  LIG0        0.0619
     38  H        -24.0440    0.2260   -6.6020 H       0  LIG0        0.0654
     39  H        -27.5010    1.1190   -9.2290 H       0  LIG0        0.0660
     40  H        -26.5890   -0.0800  -10.2210 H       0  LIG0        0.0660
     41  H        -26.1510    1.6320  -10.2510 H       0  LIG0        0.0660
     42  H        -27.6750   -1.1430   -8.4610 H       0  LIG0        0.0661
     43  H        -30.0190   -2.7530   -5.7840 H       0  LIG0        0.0462
     44  H        -29.6180   -1.5860   -7.0430 H       0  LIG0        0.0462
     45  H        -28.5920   -3.0380  -13.3500 H       0  LIG0        0.0409
     46  H        -27.9550   -4.3610  -12.3920 H       0  LIG0        0.0409
     47  H        -27.2350   -1.0430  -13.7840 H       0  LIG0        0.0621
     48  H        -25.1050    0.1080  -13.6280 H       0  LIG0        0.0636
     49  H        -22.3630   -1.0930  -11.3620 H       0  LIG0        0.1564
     50  H        -21.0950    0.4690  -11.1530 H       0  LIG0        0.1564
     51  H        -21.5270    2.5900  -14.2270 H       0  LIG0        0.0636
     52  H        -20.0100    4.4370  -14.7400 H       0  LIG0        0.0619
     53  H        -18.0950    4.9500  -13.2250 H       0  LIG0        0.0646
     54  H        -19.2300    1.7300  -10.6590 H       0  LIG0        0.0665
     55  H        -23.7200   -2.8440  -10.7910 H       0  LIG0        0.0636
     56  H        -25.8670   -4.0000  -10.9520 H       0  LIG0        0.0621
@<TRIPOS>BOND
     1     1     2    2
     2     2    11    1
     3     2     3    1
     4     3    10   ar
     5     3     4   ar
     6     4    36    1
     7     4     5   ar
     8     5     6   ar
     9     5    37    1
    10     6     7   ar
    11     6    38    1
    12     7    10   ar
    13     7     8    1
    14     8     9    1
    15     9    40    1
    16     9    41    1
    17     9    39    1
    18    10    42    1
    19    11    44    1
    20    11    12    1
    21    11    43    1
    22    12    13    1
    23    13    35   ar
    24    13    14   ar
    25    14    15   ar
    26    15    16   ar
    27    16    17    1
    28    16    35   ar
    29    17    46    1
    30    17    45    1
    31    17    18    1
    32    18    34   ar
    33    18    19   ar
    34    19    20   ar
    35    19    47    1
    36    20    21   ar
    37    20    48    1
    38    21    22    1
    39    21    33   ar
    40    22    23   am
    41    22    49    1
    42    23    32    2
    43    23    24   am
    44    24    25    1
    45    24    50    1
    46    25    31   ar
    47    25    26   ar
    48    26    27   ar
    49    26    51    1
    50    27    28   ar
    51    27    52    1
    52    28    53    1
    53    28    29   ar
    54    29    30    1
    55    29    31   ar
    56    31    54    1
    57    33    55    1
    58    33    34   ar
    59    34    56    1


